Circuit: * D:\SM_projekt\Projekt_Systemy_Mikroprocesorowe\LTspice_Led_control.asc

Direct Newton iteration for .op point succeeded.

Date: Mon Dec 20 14:07:06 2021
Total elapsed time: 0.641 seconds.

tnom = 27
temp = 27
method = modified trap
totiter = 95949
traniter = 95941
tranpoints = 32435
accept = 26344
rejected = 6091
matrix size = 26
fillins = 0
solver = Alternate
Matrix Compiler1: 1.54 KB object code size  0.4/0.3/[0.2]
Matrix Compiler2: 2.13 KB object code size  0.3/0.4/[0.3]

